Version 4
SHEET 1 880 1052
WIRE -512 0 -512 -32
WIRE -416 0 -512 0
WIRE -64 0 -64 -80
WIRE -64 0 -320 0
WIRE -512 32 -512 0
WIRE -416 32 -416 0
WIRE 80 64 -176 64
WIRE 176 64 80 64
WIRE 400 64 224 64
WIRE 80 80 80 64
WIRE 176 80 176 64
WIRE 224 128 224 64
WIRE -512 144 -512 112
WIRE -416 144 -416 96
WIRE -416 144 -512 144
WIRE -512 176 -512 144
WIRE -64 176 -64 0
WIRE 176 176 176 160
WIRE 176 176 -64 176
WIRE -320 192 -320 0
WIRE -176 192 -176 64
WIRE 176 192 176 176
WIRE 80 288 80 144
WIRE 80 288 -64 288
WIRE 176 288 176 272
WIRE 176 288 80 288
WIRE 224 288 224 208
WIRE 416 288 224 288
WIRE -64 352 -64 288
WIRE -176 400 -176 256
WIRE -176 400 -224 400
WIRE -128 400 -176 400
WIRE -224 416 -224 400
WIRE -64 512 -64 448
WIRE 32 512 -64 512
WIRE -320 528 -320 272
WIRE -240 528 -320 528
WIRE -224 528 -224 496
WIRE -224 528 -240 528
WIRE -320 560 -320 528
WIRE -64 560 -64 512
WIRE 416 560 416 288
WIRE -224 576 -224 528
WIRE 32 576 32 512
WIRE -320 688 -320 640
WIRE -224 688 -224 640
WIRE -224 688 -320 688
WIRE -64 688 -64 640
WIRE -64 688 -224 688
WIRE 32 688 32 640
WIRE 32 688 -64 688
WIRE -64 752 -64 688
FLAG -64 752 0
FLAG -64 -80 Vcc
FLAG 416 560 0
FLAG -512 -32 Vcc
FLAG -512 176 0
FLAG 400 64 OUT
FLAG -224 400 A
FLAG -240 528 B
SYMBOL ind2 240 112 M0
WINDOW 0 -38 44 Left 2
WINDOW 3 -62 76 Left 2
SYMATTR InstName L1
SYMATTR Value 1µ
SYMATTR SpiceLine Rser=0.3
SYMBOL ind2 160 176 R0
WINDOW 0 -47 32 Left 2
WINDOW 3 -48 57 Left 2
SYMATTR InstName L2
SYMATTR Value 315µ
SYMATTR SpiceLine Rser=20
SYMBOL ind2 160 64 R0
WINDOW 0 -48 34 Left 2
WINDOW 3 -50 55 Left 2
SYMATTR InstName L3
SYMATTR Value 123µ
SYMATTR SpiceLine Rser=16
SYMBOL cap 64 80 R0
WINDOW 0 -20 13 Left 2
WINDOW 3 -43 51 Left 2
SYMATTR InstName C1
SYMATTR Value 122p
SYMBOL npn -128 352 R0
SYMATTR InstName Q1
SYMATTR Value BC547C
SYMBOL res -80 544 R0
SYMATTR InstName R2
SYMATTR Value 560
SYMBOL cap 16 576 R0
SYMATTR InstName C2
SYMATTR Value 22n
SYMBOL cap -192 192 R0
WINDOW 0 24 12 Left 2
WINDOW 3 24 58 Left 2
SYMATTR InstName C3
SYMATTR Value 220p
SYMBOL res -336 176 R0
SYMATTR InstName R4
SYMATTR Value 47k
SYMBOL res -336 544 R0
SYMATTR InstName R5
SYMATTR Value 3.3k
SYMBOL voltage -224 400 R0
WINDOW 0 -69 53 Left 2
WINDOW 3 -224 381 Left 2
WINDOW 123 -226 348 Left 2
WINDOW 39 -221 413 Left 2
SYMATTR InstName IN
SYMATTR Value SINE(0 0.01 445k 0 0 0)
SYMATTR Value2 AC 0.1
SYMATTR SpiceLine Rser=10
SYMBOL Misc\\battery -512 16 R0
SYMATTR InstName V1
SYMATTR Value 9V
SYMBOL cap -240 576 R0
SYMATTR InstName C5
SYMATTR Value 22n
SYMBOL cap -432 32 R0
SYMATTR InstName C6
SYMATTR Value 1µ
TEXT 136 40 Left 2 !K L1 L2 L3 1
TEXT -456 872 Left 2 !;.tran 0 .7m .65m
TEXT -456 904 Left 2 !.ac dec 1000 10k 10Meg
TEXT 32 -24 Left 2 ;455kHz IF Transformer
RECTANGLE Normal 320 336 0 0 2
